70
Lattice="28.0 0.0 0.0 0.0 20.0 0.0 0.0 0.0 8.0" Properties=species:S:1:pos:R:3:tags:I:1 pbc="F F F"
C      -0.56404804       1.46472323       1.22975607        1 
C       0.85595196       1.46472323       1.22975607        0 
C      -1.27404804       0.23496716       1.22975607        0 
C      -0.56404804      -0.99478892       1.22975608        1 
C       0.85595196      -0.99478892       1.22975608        0 
C       1.56595196       0.23496715       1.22975607        0 
C       1.56595196      -2.22454499       1.22975608        1 
C       2.98595196       0.23496715       1.22975608        0 
C       3.69595197       1.46472323       1.22975608        0 
C       2.98595196      -2.22454500       1.22975608        0 
C       3.69595197      -0.99478892       1.22975608        0 
C       5.11595197       1.46472323       1.22975608        0 
C       5.82595197       0.23496715       1.22975608        0 
C       5.11595197      -0.99478892       1.22975608        0 
C       3.69595196      -3.45430108       1.22975608        1 
C       5.82595197      -2.22454499       1.22975607        0 
C       5.11595197      -3.45430107       1.22975607        0 
C       5.82595199      -4.68405715       1.22975607        1 
C       7.24595200      -4.68405715       1.22975606        0 
C       7.95595201      -5.91381323       1.22975605        1 
C       7.95595198      -3.45430106       1.22975607        0 
C       7.24595198      -2.22454499       1.22975607        0 
C       2.98595197       2.69447930       1.22975607        0 
C       1.56595197       2.69447930       1.22975607        1 
C       5.82595196       2.69447930       1.22975608        0 
C       5.11595197       3.92423537       1.22975608        0 
C       3.69595197       3.92423537       1.22975608        1 
C       7.95595197      -0.99478892       1.22975608        0 
C       7.24595197       0.23496715       1.22975608        0 
C       9.37595201      -5.91381318       1.22975607        2 
C      10.08595199      -4.68405710       1.22975608        0 
C       9.37595198      -3.45430104       1.22975608        0 
C      10.08595197      -2.22454499       1.22975608        0 
C       9.37595197      -0.99478892       1.22975608        0 
C      10.08595197       0.23496715       1.22975609        0 
C      11.50595196       0.23496715       1.22975609        0 
C      12.21595196      -0.99478892       1.22975609        0 
C      11.50595197      -2.22454499       1.22975609        0 
C      13.63595196      -0.99478891       1.22975610        0 
C      14.34595195       0.23496716       1.22975610        0 
C      13.63595196       1.46472322       1.22975610        0 
C      12.21595196       1.46472322       1.22975610        0 
C      15.76595195       2.69447930       1.22975611        2 
C      16.47595195       1.46472323       1.22975611        0 
C      15.76595195       0.23496716       1.22975611        0 
C      14.34595196      -2.22454499       1.22975610        0 
C      15.76595195      -2.22454499       1.22975611        2 
C      16.47595195      -0.99478891       1.22975611        0 
C      12.21595197      -3.45430100       1.22975611        0 
C      11.50595199      -4.68405708       1.22975610        2 
C      13.63595192      -3.45430097       1.22975614        2 
C      11.50595196       2.69447929       1.22975609        0 
C      12.21595196       3.92423536       1.22975610        0 
C      13.63595195       3.92423537       1.22975610        2 
C      14.34595195       2.69447930       1.22975610        0 
C      17.89595195      -0.99478891       1.22975612        2 
C      18.60595194       0.23496716       1.22975612        0 
C      17.89595194       1.46472323       1.22975612        2 
C       7.95595196       1.46472323       1.22975608        0 
C       7.24595196       2.69447930       1.22975608        0 
C       9.37595195       1.46472324       1.22975609        0 
C      10.08595196       2.69447934       1.22975611        0 
C       7.95595192       3.92423542       1.22975614        0 
C       9.37595194       3.92423543       1.22975613        0 
C       5.82595183       5.15399142       1.22975623        1 
C       7.24595185       5.15399148       1.22975622        0 
C      10.08595190       5.15399161       1.22975620        0 
C       9.37595183       6.38374767       1.22975627        2 
C       7.95595181       6.38374761       1.22975628        1 
C      11.50595197       5.15399170       1.22975619        2 
